power-flow-agent/results/ieee14/2026-09-23/gpt-5.6-sol/plan_act_nogate__matched/traces/30_case14-parameterized-037-s0.transcript.txt
==============================================================================
TRANSCRIPT  plan_act_nogate  |  openrouter:openai/gpt-5.6-sol  |  case14  |  case14-parameterized-037-s0  run 0
==============================================================================
date: 2026-09-23   seed: 0   difficulty: parameterized   tool variant: load_split

[system]   (hash 7da5e2a37ec4, from methods/plan_act_nogate/method.json prompt_files)
You are a power system power-flow analysis assistant. You help the user complete power system analysis tasks from natural-language requests.

## What you can do
You complete tasks by calling tool functions:
1. Load an IEEE standard test system (14, 30, 57, 118, 300 buses)
2. Run AC power flow
3. Modify the load at a bus and re-solve
4. Disconnect or reconnect a line and re-solve
5. Query the network status
6. Run an N-1 contingency analysis (disconnect branches one at a time and rank the worst cases)
7. Generate remedial-action suggestions (what-if load shedding or voltage adjustment) to reduce violation risk

## Key rules
- Never fabricate any numerical result. Every voltage, power, loss, or loading value must come from a tool return value.
- If a tool reports an error or a non-converged power flow, say so explicitly and do not report numbers for that state.
- If the request is ambiguous, state the interpretation you are using.
- Bus and line identifiers in the request are MATPOWER 1-based ids; pass them to the tools as given, unless the request itself states a different indexing convention for that identifier (e.g. "(0-based)"), in which case convert it to the MATPOWER 1-based id before calling any tool.
- After a network modification, re-solve before reporting any value.
- Always reply in English.

## Reply format
After each analysis, reply in this structure:
1. One-sentence summary
2. Key numbers (total load, total generation, total losses, voltage range) taken from the tool outputs
3. Violations, if any
4. Suggested next step

[user]   (complete message, stored at run time)
Load the IEEE 14-bus system and run the power flow, then list every line whose loading is above 100%.

[tools available to the model]   (function-calling schema, --tool-variant load_split; enum values and defaults as sent)
  load_case(case_name: string* in {case14, case30, case57, case118, case300})  Load IEEE test case.
  run_powerflow()  Run power flow on current case.
  disconnect_line(from_bus: integer*, to_bus: integer*)  Disconnect line/branch between two buses and recompute.
  reconnect_line(from_bus: integer*, to_bus: integer*)  Reconnect line/branch between two buses and recompute.
  get_most_loaded_branch()  Get most loaded branch.
  run_n1_contingency(top_k: integer (default 5), criteria: string in {max_violations, max_overload, min_voltage} (default max_violations), max_candidates: integer (default 0))  Run N-1 contingency analysis.
  recommend_remedial_actions(max_actions: integer (default 5), allow_load_shed: boolean (default True), allow_voltage_control: boolean (default True), include_best_comparison: boolean (default True))  Recommend remedial actions.
  apply_remedial_action(action_index: integer*, confirmed: boolean (default False))  Apply one remedial action by index.
  get_status()  Get current network status.
  generate_plot(plot_type: string* in {voltage_heatmap, flow_diagram, violation_overview, comparison})  Generate one plot.
  set_active_load(bus_id: integer*, p_mw: number*)  Set a bus's active load (MW) and recompute. Use this when the request states only an active-power value. This tool has no reactive-power argument: the bus's present reactive load is always left unchanged. If the request also states a reactive-power value, use set_load instead.
  set_load(bus_id: integer*, p_mw: number*, q_mvar: number*)  Set a bus's active and reactive load (MW, Mvar) and recompute. Use this only when the request states both values. If the request states only an active-power value, use set_active_load instead -- do not invent a reactive-power value here to fill this in.

[planner system prompt]   (hash 76ea681e520a; as assembled today from methods/plan_act; the planning call sends this plus the request)
You are the planner of a power-system analysis agent. You cannot call tools yourself. Given the user's request, output ONLY a JSON object of the form
{"plan": [{"tool": "<tool_name>", "args": {...}}, ...]}
listing, in execution order, every tool call needed to answer the request. Use only the tools below with exactly these argument names (* = required); where an argument lists allowed values, use one of them verbatim. Bus and line identifiers in the request are MATPOWER 1-based ids; pass them to the tools as given, unless the request itself states a different indexing convention for that identifier (e.g. "(0-based)"), in which case convert it to the MATPOWER 1-based id. Do not include explanations, markdown, or any text outside the JSON.

Available tools:
- load_case(case_name: string in {case14, case30, case57, case118, case300}*): Load IEEE test case.
- run_powerflow((none)): Run power flow on current case.
- disconnect_line(from_bus: integer*, to_bus: integer*): Disconnect line/branch between two buses and recompute.
- reconnect_line(from_bus: integer*, to_bus: integer*): Reconnect line/branch between two buses and recompute.
- get_most_loaded_branch((none)): Get most loaded branch.
- run_n1_contingency(top_k: integer, criteria: string in {max_violations, max_overload, min_voltage}, max_candidates: integer): Run N-1 contingency analysis.
- recommend_remedial_actions(max_actions: integer, allow_load_shed: boolean, allow_voltage_control: boolean, include_best_comparison: boolean): Recommend remedial actions.
- apply_remedial_action(action_index: integer*, confirmed: boolean): Apply one remedial action by index.
- get_status((none)): Get current network status.
- generate_plot(plot_type: string in {voltage_heatmap, flow_diagram, violation_overview, comparison}*): Generate one plot.
- set_active_load(bus_id: integer*, p_mw: number*): Set a bus's active load (MW) and recompute. Use this when the request states only an active-power value. This tool has no reactive-power argument: the bus's present reactive load is always left unchanged. If the request also states a reactive-power value, use set_load instead.
- set_load(bus_id: integer*, p_mw: number*, q_mvar: number*): Set a bus's active and reactive load (MW, Mvar) and recompute. Use this only when the request states both values. If the request states only an active-power value, use set_active_load instead -- do not invent a reactive-power value here to fill this in.

[planner output]
[
 {
  "tool": "load_case",
  "args": {
   "case_name": "case14"
  }
 },
 {
  "tool": "run_powerflow",
  "args": {}
 },
 {
  "tool": "get_status",
  "args": {}
 }
]

--- round 1 ---
[assistant]   (605 in / 110 out tokens, 4.0 s)
{"plan":[{"tool":"load_case","args":{"case_name":"case14"}},{"tool":"run_powerflow","args":{}},{"tool":"get_status","args":{}}]}

--- round 2 ---
[tool load_case]   (gate: not applied)
{"case_name": "case14", "n_buses": 14, "n_generators": 5, "n_lines": 20, "n_loads": 11, "total_load_mw": 262.9675788776612, "total_gen_capacity_mw": 772.4000000000001}
[tool run_powerflow]   (gate: pass)
{"case_name": "case14", "converged": true, "bus_voltages": [{"bus_id": 1, "vm_pu": 1.06, "va_deg": 0.0, "is_violation": true, "violation_type": "overvoltage"}, {"bus_id": 2, "vm_pu": 1.045, "va_deg": -5.180893684544554, "is_violation": false, "violation_type": null}, {"bus_id": 3, "vm_pu": 1.01, "va_deg": -13.126434916819743, "is_violation": false, "violation_type": null}, {"bus_id": 4, "vm_pu": 1.0177535064298082, "va_deg": -10.50090482857212, "is_violation": false, "violation_type": null}, {"bus_id": 5, "vm_pu": 1.0194043707050664, "va_deg": -8.956336993332418, "is_violation": false, "violation_type": null}, {"bus_id": 6, "vm_pu": 1.07, "va_deg": -14.532901451660152, "is_violation": true, "violation_type": "overvoltage"}, {"bus_id": 7, "vm_pu": 1.0616891489872562, "va_deg": -13.576552233713985, "is_violation": true, "violation_type": "overvoltage"}, {"bus_id": 8, "vm_pu": 1.09, "va_deg": -13.576552233713988, "is_violation": true, "violation_type": "overvoltage"}, {"bus_id": 9, "vm_pu": 1.0562744318607507, "va_deg": -15.170035544005472, "is_violation": true, "violation_type": "overvoltage"}, {"bus_id": 10, "vm_pu": 1.0507714465180968, "va_deg": -15.362562852710946, "is_violation": true, "violation_type": "overvoltage"}, {"bus_id": 11, "vm_pu": 1.0570061962309416, "va_deg": -15.070219756365738, "is_violation": true, "violation_type": "overvoltage"}, {"bus_id": 12, "vm_pu": 1.0549117070962426, "va_deg": -15.400250999989494, "is_violation": true, "violation_type": "overvoltage"}, {"bus_id": 13, "vm_pu": 1.049892895716855, "va_deg": -15.483468672366133, "is_violation": false, "violation_type": null}, {"bus_id": 14, "vm_pu": 1.0337159160622333, "va_deg": -16.405803410625918, "is_violation": false, "violation_type": null}], "line_flows": [{"line_id": 0, "from_bus": 1, "to_bus": 2, "p_from_mw": 162.8812504475263, "q_from_mvar": -21.79502032333813, "loading_percent": 1.5659707344375324, "is_violation": false}, {"line_id": 1, "from_bus": 1, "to_bus": 5, "p_from_mw": 77.00913543857891, "q_from_mvar": 3.7811449881455204, "loading_percent": 0.7351094330505512, "is_violation": false}, {"line_id": 2, "from_bus": 2, "to_bus": 3, "p_from_mw": 75.06721466382896, "q_from_mvar": 3.383753357085876, "loading_percent": 0.7267071052310302, "is_violation": false}, {"line_id": 3, "from_bus": 2, "to_bus": 4, "p_from_mw": 56.02071206817424, "q_from_mvar": -1.572677851964924, "loading_percent": 0.5417116884747388, "is_violation": false}, {"line_id": 4, "from_bus": 2, "to_bus": 5, "p_from_mw": 41.37595231651519, "q_from_mvar": 1.2714322740030428, "loading_percent": 0.40168616308248223, "is_violation": false}, {"line_id": 5, "from_bus": 3, "to_bus": 4, "p_from_mw": -25.208757644482326, "q_from_mvar": 5.2761600351474405, "loading_percent": 0.2602838118173472, "is_violation": false}, {"line_id": 6, "from_bus": 4, "to_bus": 5, "p_from_mw": -61.23678523628702, "q_from_mvar": 16.318934556754407, "loading_percent": 0.6289739343584255, "is_violation": false}, {"line_id": 7, "from_bus": 6, "to_bus": 11, "p_from_mw": 7.070170017136723, "q_from_mvar": 3.638942041366507, "loading_percent": 0.07506541369237418, "is_violation": false}, {"line_id": 8, "from_bus": 6, "to_bus": 12, "p_from_mw": 7.909961923067768, "q_from_mvar": 2.561147260438916, "loading_percent": 0.07848827736579407, "is_violation": false}, {"line_id": 9, "from_bus": 6, "to_bus": 13, "p_from_mw": 18.088651495082146, "q_from_mvar": 7.448805191741272, "loading_percent": 0.18467205702706893, "is_violation": false}, {"line_id": 10, "from_bus": 9, "to_bus": 10, "p_from_mw": 6.1363780341826715, "q_from_mvar": 4.5762685400539835, "loading_percent": 0.07320269950373584, "is_violation": false}, {"line_id": 11, "from_bus": 9, "to_bus": 14, "p_from_mw": 10.562164026866306, "q_from_mvar": 3.9412580300101427, "loading_percent": 0.10780739511023955, "is_violation": false}, {"line_id": 12, "from_bus": 10, "to_bus": 11, "p_from_mw": -3.724657602901582, "q_from_mvar": -1.8122339991207232, "loading_percent": 0.039818105132004185, "is_violation": false}, {"line_id": 13, "from_bus": 12, "to_bus": 13, "p_from_mw": 1.6803381578575842, "q_from_mvar": 0.7921593059209168, "loading_percent": 0.017787892184608075, "is_violation": false}, {"line_id": 14, "from_bus": 13, "to_bus": 14, "p_from_mw": 5.991315478263383, "q_from_mvar": 1.9779776296040767, "loading_percent": 0.06070247346660855, "is_violation": false}, {"line_id": 100000, "from_bus": 4, "to_bus": 7, "p_from_mw": 28.347246501351076, "q_from_mvar": -9.709841790173112, "loading_percent": 0.2973880174182438, "is_violation": false}, {"line_id": 100001, "from_bus": 4, "to_bus": 9, "p_from_mw": 16.23726352909852, "q_from_mvar": -0.463773010634209, "loading_percent": 0.16121747485159313, "is_violation": false}, {"line_id": 100002, "from_bus": 5, "to_bus": 6, "p_from_mw": 45.12711265802459, "q_from_mvar": 12.519148683835185, "loading_percent": 0.4640406059735517, "is_violation": false}, {"line_id": 100003, "from_bus": 7, "to_bus": 8, "p_from_mw": 1.338325103908851e-14, "q_from_mvar": -17.063481872736336, "loading_percent": 0.16234356630594268, "is_violation": false}, {"line_id": 100004, "from_bus": 7, "to_bus": 9, "p_from_mw": 28.34724650096631, "q_from_mvar": 5.619873610742037, "loading_percent": 0.2749473283300484, "is_violation": false}], "total_generation_mw": 277.0329956876357, "total_load_mw": 262.9675788776612, "total_loss_mw": 14.06541681585335, "voltage_violations": [{"bus_id": 1, "vm_pu": 1.06, "va_deg": 0.0, "is_violation": true, "violation_type": "overvoltage"}, {"bus_id": 6, "vm_pu": 1.07, "va_deg": -14.532901451660152, "is_violation": true, "violation_type": "overvoltage"}, {"bus_id": 7, "vm_pu": 1.0616891489872562, "va_deg": -13.576552233713985, "is_violation": true, "violation_type": "overvoltage"}, {"bus_id": 8, "vm_pu": 1.09, "va_deg": -13.576552233713988, "is_violation": true, "violation_type": "overvoltage"}, {"bus_id": 9, "vm_pu": 1.0562744318607507, "va_deg": -15.170035544005472, "is_violation": true, "violation_type": "overvoltage"}, {"bus_id": 10, "vm_pu": 1.0507714465180968, "va_deg": -15.362562852710946, "is_violation": true, "violation_type": "overvoltage"}, {"bus_id": 11, "vm_pu": 1.0570061962309416, "va_deg": -15.070219756365738, "is_violation": true, "violation_type": "overvoltage"}, {"bus_id": 12, "vm_pu": 1.0549117070962426, "va_deg": -15.400250999989494, "is_violation": true, "violation_type": "overvoltage"}], "thermal_violations": [], "summary_text": "", "solver_backend": "pandapower", "llm_prompt": null, "llm_response": null}
[tool get_status]   (gate: not applied)
{"active_case": "case14", "network_info": {"case_name": "case14", "n_buses": 14, "n_generators": 5, "n_lines": 20, "n_loads": 11, "total_load_mw": 262.9675788776612, "total_gen_capacity_mw": 772.4000000000001}, "has_last_result": true, "last_result_summary": {"converged": true, "total_load_mw": 262.9675788776612, "total_generation_mw": 277.0329956876357, "total_loss_mw": 14.06541681585335, "n_voltage_violations": 8, "n_thermal_violations": 0, "solver_backend": "pandapower"}}

--- round 3 ---
[assistant final]   (3459 in / 231 out tokens, 4.6 s)
1. **Summary:** The IEEE 14-bus AC power flow converged successfully, and **no lines are loaded above 100%**.

2. **Key numbers:**
   - Total load: **262.968 MW**
   - Total generation: **277.033 MW**
   - Total losses: **14.065 MW**
   - Voltage range: **1.010–1.090 p.u.**

3. **Violations:**
   - Thermal violations above 100%: **None**
   - Overvoltage violations: buses **1, 6, 7, 8, 9, 10, 11, and 12**

4. **Suggested next step:** Review generator voltage setpoints or run remedial-action analysis to address the overvoltage violations.
